Circuit: * C:\Program Files (x86)\LTC\LTspiceIV\twin-t-osc\twin-t-osc-0v06.asc

WARNING: Node N017 is floating.

WARNING: Less than two connections to node T_0DB.  This node is used by R28.
Direct Newton iteration for .op point succeeded.

Date: Fri Dec 23 02:29:09 2022
Total elapsed time: 7.811 seconds.

tnom = 27
temp = 27
method = modified trap
totiter = 189035
traniter = 189013
tranpoints = 68819
accept = 47830
rejected = 20989
matrix size = 50
fillins = 18
solver = Normal
Matrix Compiler1: 4,29 KB object code size  4.5/2.5/[1.7]
Matrix Compiler2: off  [1.6]/2.4/1.9


